
Circuit: *inv for trace the correctness of matlab model

Warning -- Version not specified on line "level=8 tnom=25 tox=2.33e-09 xj=1.5e-07 nch=3.0773e+17 lln=1 lwn=1 wln=1 wwn=1 lint=2.5e-09 ll=0 lw=0 lwl=0 wint=2e-08 wl=0 ww=0 wwl=0 mobmod=1 dwg=0 dwb=0 rsh=0.0 vth0=0.245 k1=0.06115637 k2=0.100874 k3=-3.004738 dvt0=1.4235 dvt1=1.4404 dvt2=0 dvt0w=0.008 dvt1w=0 dvt2w=0 nlx=5.76e-07 w0=-4.2e-09 k3b=1.08 vsat=84000 ua=-5.573335e-10 ub=1.627912e-18 uc=7.821954e-11 rdsw=80 prwb=-0.328 prwg=-0.36 wr=1 u0=0.03560588 a0=3.884252 keta=0.02429661 lketa=6.304283e-10 a1=0 a2=0.99 ags=0.001 b0=0 b1=0 voff=-0.1088482 nfactor=1.277456 cit=0.0005617543 cdsc=0.0128 cdscb=0.00825 cdscd=0.2499034 eta0=0.0001 etab=-8.582657e-06 dsub=0 pclm=1.381616 pdiblc1=0.0647624 pdiblc1=0.0647624 pdiblcb=0.5 drout=0.124 pscbe1=9.11e+08 pscbe2=1e-20 pvag=0 delta=0.00760921 kt1=-0.2529792 kt2=-0.0573407 at=33000 ute=-2.268582 ua1=-3.501854e-10 ub1=8.608549e-22 uc1=1.857936e-10 kt1l=0 prt=0 cj=0.00111 mj=0.349 pb=0.559 cjsw=5.23e-11 mjsw=0.0242 pbsw=0.559 cjswg=4.37e-10 mjswg=0.0242 pbswg=0.559 cgdo=4.123e-10 cgso=4.123e-10 capmod=3 xpart=1 cf=0 pvth0=0.0 cgbo=0"
Setting version to 'default'.
Warning -- Version not specified on line "level=8 tnom=25 tox=2.52e-09 xj=1.7e-07 nch=6.2e+17 lln=1 lwn=1 wln=1 wwn=1 lint=2.5e-09 ll=0 lw=0 lwl=0 wint=2e-08 wl=0 ww=0 wwl=0 mobmod=1 dwg=0 dwb=0 rsh=0.0 vth0=-0.195205 k1=0.3152002 k2=-0.0409442 k3=0.02568 dvt0=0.75 dvt1=0.67 dvt2=-0.0475 dvt0w=0.4175481 dvt1w=1681211 dvt2w=-0.00267 nlx=1.15e-07 w0=0 k3b=0.03822934 vsat=100000 ua=7e-11 ub=1.452045e-18 uc=2.213636e-12 rdsw=210 prwb=0 prwg=0 wr=1 u0=0.009800369 a0=1.099314 keta=-0.03 a1=0 a2=1 ags=0.5869887 b0=0 b1=0 voff=-0.09683613 nfactor=1 cit=-0.0001 cdsc=0 cdscb=0 cdscd=0 eta0=0.001739773 etab=0 dsub=0 pclm=1 pdiblc1=0.006 pdiblc2=0.005 pdiblcb=-0.5267781 drout=0 pscbe1=5.13e+08 pscbe2=4.89e-07 pvag=0 delta=0.002 kt1=-0.1986989 kt2=0.011975 at=10000 ute=-0.98 ua1=1.940966e-09 ub1=-3.227546e-18 uc1=-3.3636e-10 kt1l=0 prt=0 cj=0.00123 mj=0.3468595 pb=0.746051 cjsw=4.91e-11 mjsw=0.2345951 pbsw=0.746051 cjswg=4.21e-10 mjswg=0.2345951 pbswg=0.746051 cgdo=3.483e-10 cgso=3.483e-10 cgbo=1e-13 capmod=3 xpart=1 cf=0 pvth0=0.0"
Setting version to 'default'.
Doing analysis at TEMP = 27.000000 and TNOM = 27.000000

Warning: Pd = 0 is less than W.
Warning: Ps = 0 is less than W.
Warning: Pd = 0 is less than W.
Warning: Ps = 0 is less than W.
220
420
420
420
420
420
120

Initial Transient Solution
--------------------------

Node                                   Voltage
----                                   -------
2                                     0.999115     1
1                                            0     2
3                                     0.999999     3
4                                     0.999115     4
5                                            0     5

1001
101
2001
101
2001
101
2001
101
2001
101
2001
101
2001
101
2001
101
2001
101
2001
101
2001
101
2001
101
2001
101
2001
101
2001
101
2001
101
2001
101
2001
101
2001
101
2001
101
2001
101
2001
101
2001
101
2001
101
2001
101
2001
101
2001
101
2001
101
2001
101
2001
101
2001
101
2001
101
2001
101
2001
101
2001
101
2001
101
2001
101
2001
101
2001
101
2001
101
2001
101
2001
101
2001
101
2001
101
2001
101
2001
101
2001
101
2001
101
2001
101
2001
101
2001
101
2001
101
2001
101
2001
101
2001
101
2001
101
2001
101
2001
101
2001
101
101
2001
101
2001
101
2001
101
2001
101
2001
101
2001
101
2001
101
2001
101
2001
101
2001
101
2001
101
2001
101
2001
101
2001
101
2001
101
2001
101
2001
101
2001
101
2001
101
2001
101
2001
101
2001
101
2001
101
2001
101
2001
101
2001
101
2001
101
2001
101
2001
101
2001
101
2001
101
2001
101
2001
101
2001
101
2001
101
2001
101
2001
101
2001
101
2001
101
2001
101
2001
101
2001
101
2001
101
2001
101
2001
101
2001
101
2001
101
2001
101
2001
101
2001
101
2001
101
2001
101
2001
101
2001
101
2001
101
2001
101
2001
101
2001
101
2001
101
2001
101
2001
101
2001
101
2001
101
2001
101
2001
101
2001
101
2001
101
2001
101
2001
101
2001
101
2001
101
2001
101
2001
101
2001
101
2001
101
2001
101
2001
101
2001
101
2001
101
2001
101
2001
101
2001
101
2001
101
2001
101
2001
101
2001
101
2001
101
2001
101
2001
101
2001
101
2001
101
2001
101
2001
101
2001
101
2001
101
2001
101
2001
101
2001
101
2001
101
2001
101
2001
101
2001
101
2001
101
2001
101
2001
101
2001
101
2001
101
2001
101
2001
101
2001
101
2001
101
2001
101
2001
101
2001
101
2001
101
2001
101
2001
101
2001
101
2001
101
2001
101
2001
101
2001
101
2001
101
2001
101
2001
101
2001
101
2001
101
2001
101
2001
101
2001
101
2001
101
2001
101
2001
101
2001
101
2001
101
2001
101
2001
101
2001
101
2001
101
2001
101
2001
101
2001
101
2001
101
2001
101
2001
101
2001
101
2001
101
2001
101
2001
101
2001
101
2001
101
2001
101
2001
101
2001
101
2001
101
2001
101
2001
101
2001
101
2001
101
2001
101
2001
101
2001
101
2001
101
2001
101
2001
101
101
2001
101
2001
101
2001
101
2001
101
2001
101
2001
101
2001
101
2001
101
2001
101
2001
101
2001
101
2001
101
2001
101
2001
101
2001
101
2001
101
2001
101
2001
101
2001
101
2001
101
2001
101
2001
101
2001
101
2001
101
2001
101
2001
101
2001
101
2001
101
2001
101
2001
101
2001
101
2001
101
2001
101
2001
101
2001
101
2001
101
2001
101
2001
101
2001
101
2001
101
2001
101
2001
101
2001
101
2001
101
2001
101
2001
101
2001
101
2001
101
2001
101
2001
101
2001
101
2001
101
2001
101
2001
101
2001
101
2001
101
2001
101
2001
101
2001
101
2001
101
2001
101
2001
101
2001
101
2001
101
2001
101
2001
101
2001
101
2001
101
2001
101
2001
101
2001
101
2001
101
2001
101
2001
101
2001
101
2001
101
2001
101
2001
101
2001
101
2001
101
2001
101
2001
101
2001
101
2001
101
2001
101
2001
101
2001
101
2001
101
2001
101
2001
101
2001
101
2001
101
2001
101
2001
101
2001
101
2001
101
2001
101
2001
101
2001
101
2001
101
2001
101
2001
101
2001
101
2001
101
2001
101
2001
101
2001
101
2001
101
2001
101
2001
101
2001
101
2001
101
2001
101
2001
101
2001
101
2001
101
2001
101
2001
101
2001
101
2001
101
2001
101
2001
101
2001
101
2001
101
2001
101
2001
101
2001
101
2001
101
2001
101
2001
101
2001
101
2001
101
2001
101
2001
101
2001
101
2001
101
2001
101
2001
101
2001
101
2001
101
2001
101
2001
101
2001
101
2001
101
2001
101
2001
101
2001
101
2001
101
2001
101
2001
101
2001
101
2001
101
2001
101
2001
101
2001
101
2001
101
2001
101
2001
101
2001
101
2001
101
2001
101
2001
101
2001
101
2001
101
2001
101
2001
101
2001
101
2001
101
2001
101
2001
101
2001
101
2001
101
2001
101
2001
101
2001
101
2001
101
2001
101
2001
101
2001
101
2001
101
2001
101
2001
101
2001
101
2001
101
2001
101
2001
101
2001
101
2001
101
2001
101
2001
101
101
2001
101
2001
101
2001
101
2001
101
2001
101
2001
101
2001
101
2001
101
2001
101
2001
101
2001
101
2001
101
2001
101
2001
101
2001
101
2001
101
2001
101
2001
101
2001
101
2001
101
2001
101
2001
101
2001
101
2001
101
2001
101
2001
101
2001
101
2001
101
2001
101
2001
101
2001
101
2001
101
2001
101
2001
101
2001
101
2001
101
2001
101
2001
101
2001
101
2001
101
2001
101

No. of Data Rows : 425
                 *inv for trace the correctness of matlab model
                 Transient Analysis  Tue Feb 26 16:07:33  2013
--------------------------------------------------------------------------------
Index   time            v(1)            v(2)            v(3)            
--------------------------------------------------------------------------------
0	0.000000e+00	0.000000e+00	9.991153e-01	9.999990e-01	
1	5.000000e-14	2.699230e-15	9.991153e-01	9.999990e-01	
2	1.000000e-13	2.976785e-15	9.991153e-01	9.999990e-01	
3	2.000000e-13	3.594347e-15	9.991153e-01	9.999990e-01	
4	4.000000e-13	-3.15373e-15	9.991153e-01	9.999990e-01	
5	8.000000e-13	-7.97973e-16	9.991153e-01	9.999990e-01	
6	1.600000e-12	2.363561e-15	9.991153e-01	9.999990e-01	
7	3.200000e-12	-1.32273e-15	9.991153e-01	9.999990e-01	
8	6.400000e-12	2.705518e-15	9.991153e-01	9.999990e-01	
9	1.280000e-11	-1.06718e-15	9.991153e-01	9.999990e-01	
10	2.280000e-11	1.796089e-15	9.991153e-01	9.999990e-01	
11	3.280000e-11	-2.85308e-16	9.991153e-01	9.999990e-01	
12	4.280000e-11	-1.84455e-15	9.991153e-01	9.999990e-01	
13	5.280000e-11	-4.08690e-16	9.991153e-01	9.999990e-01	
14	6.280000e-11	2.063237e-15	9.991153e-01	9.999990e-01	
15	7.280000e-11	-2.31586e-16	9.991153e-01	9.999990e-01	
16	8.280000e-11	3.042813e-16	9.991153e-01	9.999990e-01	
17	9.280000e-11	1.260385e-16	9.991153e-01	9.999990e-01	
18	1.028000e-10	-1.28017e-15	9.991153e-01	9.999990e-01	
19	1.128000e-10	1.127950e-15	9.991153e-01	9.999990e-01	
20	1.228000e-10	-1.11472e-15	9.991153e-01	9.999990e-01	
21	1.328000e-10	-4.69460e-17	9.991153e-01	9.999990e-01	
22	1.428000e-10	-3.78658e-16	9.991153e-01	9.999990e-01	
23	1.528000e-10	1.872417e-16	9.991153e-01	9.999990e-01	
24	1.628000e-10	2.655211e-16	9.991153e-01	9.999990e-01	
25	1.728000e-10	1.279792e-15	9.991153e-01	9.999990e-01	
26	1.828000e-10	-1.25702e-15	9.991153e-01	9.999990e-01	
27	1.928000e-10	2.383618e-16	9.991153e-01	9.999990e-01	
28	2.028000e-10	1.290201e-17	9.991153e-01	9.999990e-01	
29	2.128000e-10	-7.06249e-16	9.991153e-01	9.999990e-01	
30	2.228000e-10	4.971609e-16	9.991153e-01	9.999990e-01	
31	2.328000e-10	2.082752e-16	9.991153e-01	9.999990e-01	
32	2.428000e-10	-1.67130e-16	9.991153e-01	9.999990e-01	
33	2.528000e-10	-1.03487e-15	9.991153e-01	9.999990e-01	
34	2.628000e-10	1.923917e-15	9.991153e-01	9.999990e-01	
35	2.728000e-10	-1.14118e-15	9.991153e-01	9.999990e-01	
36	2.828000e-10	9.942676e-16	9.991153e-01	9.999990e-01	
37	2.928000e-10	-1.53507e-15	9.991153e-01	9.999990e-01	
38	3.028000e-10	1.350916e-15	9.991153e-01	9.999990e-01	
39	3.128000e-10	1.510294e-16	9.991153e-01	9.999990e-01	
40	3.228000e-10	-6.30030e-16	9.991153e-01	9.999990e-01	
41	3.328000e-10	-9.70036e-16	9.991153e-01	9.999990e-01	
42	3.428000e-10	1.554637e-15	9.991153e-01	9.999990e-01	
43	3.528000e-10	-1.44107e-15	9.991153e-01	9.999990e-01	
44	3.628000e-10	2.116471e-15	9.991153e-01	9.999990e-01	
45	3.728000e-10	-8.95551e-16	9.991153e-01	9.999990e-01	
46	3.828000e-10	-7.91468e-17	9.991153e-01	9.999990e-01	
47	3.928000e-10	6.654833e-16	9.991153e-01	9.999990e-01	
48	4.028000e-10	-1.97189e-15	9.991153e-01	9.999990e-01	
49	4.128000e-10	4.738506e-16	9.991153e-01	9.999990e-01	
50	4.228000e-10	5.076777e-16	9.991153e-01	9.999990e-01	
51	4.328000e-10	-6.05147e-16	9.991153e-01	9.999990e-01	
52	4.428000e-10	1.096942e-15	9.991153e-01	9.999990e-01	
53	4.528000e-10	-1.18286e-15	9.991153e-01	9.999990e-01	
54	4.628000e-10	1.727622e-15	9.991153e-01	9.999990e-01	

Index   time            v(1)            v(2)            v(3)            
--------------------------------------------------------------------------------
55	4.728000e-10	-1.00386e-15	9.991153e-01	9.999990e-01	
56	4.828000e-10	1.288249e-15	9.991153e-01	9.999990e-01	
57	4.928000e-10	-2.75984e-16	9.991153e-01	9.999990e-01	
58	5.000000e-10	-2.50548e-15	9.991153e-01	9.999990e-01	
59	5.000005e-10	5.769751e-07	9.991156e-01	9.999993e-01	
60	5.000016e-10	2.736641e-06	9.991168e-01	1.000000e+00	
61	5.000019e-10	3.758560e-06	9.991173e-01	1.000001e+00	
62	5.000022e-10	4.850216e-06	9.991178e-01	1.000001e+00	
63	5.000026e-10	6.255143e-06	9.991185e-01	1.000002e+00	
64	5.000030e-10	8.201912e-06	9.991195e-01	1.000003e+00	
65	5.000035e-10	1.051612e-05	9.991206e-01	1.000004e+00	
66	5.000040e-10	1.326336e-05	9.991219e-01	1.000005e+00	
67	5.000046e-10	1.641371e-05	9.991233e-01	1.000006e+00	
68	5.000052e-10	2.007828e-05	9.991250e-01	1.000007e+00	
69	5.000058e-10	2.430312e-05	9.991269e-01	1.000008e+00	
70	5.000065e-10	2.919307e-05	9.991290e-01	1.000010e+00	
71	5.000073e-10	3.482964e-05	9.991313e-01	1.000011e+00	
72	5.000082e-10	4.133251e-05	9.991340e-01	1.000012e+00	
73	5.000091e-10	4.882642e-05	9.991370e-01	1.000014e+00	
74	5.000102e-10	5.746247e-05	9.991404e-01	1.000015e+00	
75	5.000114e-10	6.734555e-05	9.991442e-01	1.000017e+00	
76	5.000126e-10	7.762734e-05	9.991481e-01	1.000018e+00	
77	5.000139e-10	8.890551e-05	9.991522e-01	1.000019e+00	
78	5.000152e-10	1.007232e-04	9.991565e-01	1.000020e+00	
79	5.000166e-10	1.136667e-04	9.991611e-01	1.000021e+00	
80	5.000181e-10	1.273134e-04	9.991660e-01	1.000022e+00	
81	5.000196e-10	1.422116e-04	9.991712e-01	1.000022e+00	
82	5.000213e-10	1.580148e-04	9.991766e-01	1.000023e+00	
83	5.000231e-10	1.752712e-04	9.991825e-01	1.000024e+00	
84	5.000250e-10	1.937192e-04	9.991888e-01	1.000024e+00	
85	5.000271e-10	2.139341e-04	9.991956e-01	1.000024e+00	
86	5.000293e-10	2.357602e-04	9.992030e-01	1.000025e+00	
87	5.000317e-10	2.598505e-04	9.992110e-01	1.000025e+00	
88	5.000344e-10	2.862035e-04	9.992198e-01	1.000025e+00	
89	5.000374e-10	3.156441e-04	9.992296e-01	1.000025e+00	
90	5.000406e-10	3.484354e-04	9.992405e-01	1.000025e+00	
91	5.000444e-10	3.857729e-04	9.992529e-01	1.000025e+00	
92	5.000489e-10	4.305591e-04	9.992677e-01	1.000026e+00	
93	5.000545e-10	4.867649e-04	9.992862e-01	1.000026e+00	
94	5.000619e-10	5.603590e-04	9.993105e-01	1.000026e+00	
95	5.000721e-10	6.623580e-04	9.993440e-01	1.000026e+00	
96	5.000875e-10	8.166472e-04	9.993947e-01	1.000026e+00	
97	5.001144e-10	1.085619e-03	9.994826e-01	1.000026e+00	
98	5.001682e-10	1.623564e-03	9.996573e-01	1.000026e+00	
99	5.002758e-10	2.699454e-03	1.000002e+00	1.000026e+00	
100	5.002842e-10	2.783709e-03	1.000029e+00	1.000026e+00	
101	5.002857e-10	2.798200e-03	1.000034e+00	1.000025e+00	
102	5.002861e-10	2.802346e-03	1.000036e+00	1.000025e+00	
103	5.002866e-10	2.807152e-03	1.000038e+00	1.000025e+00	
104	5.002875e-10	2.816774e-03	1.000041e+00	1.000025e+00	
105	5.002884e-10	2.825526e-03	1.000045e+00	1.000024e+00	
106	5.002896e-10	2.838232e-03	1.000049e+00	1.000024e+00	
107	5.002914e-10	2.855757e-03	1.000056e+00	1.000024e+00	
108	5.002936e-10	2.878210e-03	1.000065e+00	1.000024e+00	
109	5.002966e-10	2.908410e-03	1.000076e+00	1.000024e+00	
110	5.003000e-10	2.942058e-03	1.000089e+00	1.000024e+00	
111	5.003036e-10	2.978600e-03	1.000103e+00	1.000024e+00	
112	5.003082e-10	3.025050e-03	1.000120e+00	1.000024e+00	

Index   time            v(1)            v(2)            v(3)            
--------------------------------------------------------------------------------
113	5.003138e-10	3.081037e-03	1.000142e+00	1.000024e+00	
114	5.003219e-10	3.161715e-03	1.000172e+00	1.000024e+00	
115	5.003326e-10	3.268882e-03	1.000213e+00	1.000024e+00	
116	5.003510e-10	3.452866e-03	1.000282e+00	1.000024e+00	
117	5.003831e-10	3.773154e-03	1.000402e+00	1.000024e+00	
118	5.004471e-10	4.413728e-03	1.000640e+00	1.000024e+00	
119	5.005753e-10	5.694884e-03	1.001107e+00	1.000024e+00	
120	5.008315e-10	8.257209e-03	1.002005e+00	1.000025e+00	
121	5.011937e-10	1.187856e-02	1.003198e+00	1.000026e+00	
122	5.015783e-10	1.572410e-02	1.004372e+00	1.000027e+00	
123	5.019799e-10	1.973975e-02	1.005505e+00	1.000028e+00	
124	5.023883e-10	2.382270e-02	1.006568e+00	1.000029e+00	
125	5.028153e-10	2.809227e-02	1.007592e+00	1.000030e+00	
126	5.032600e-10	3.253923e-02	1.008571e+00	1.000031e+00	
127	5.037277e-10	3.721579e-02	1.009513e+00	1.000031e+00	
128	5.042181e-10	4.211968e-02	1.010415e+00	1.000032e+00	
129	5.047350e-10	4.728797e-02	1.011280e+00	1.000033e+00	
130	5.052797e-10	5.273492e-02	1.012105e+00	1.000033e+00	
131	5.058563e-10	5.850084e-02	1.012894e+00	1.000034e+00	
132	5.064676e-10	6.461345e-02	1.013646e+00	1.000034e+00	
133	5.071185e-10	7.112218e-02	1.014364e+00	1.000035e+00	
134	5.078133e-10	7.806992e-02	1.015047e+00	1.000035e+00	
135	5.085586e-10	8.552272e-02	1.015699e+00	1.000036e+00	
136	5.093610e-10	9.354594e-02	1.016321e+00	1.000036e+00	
137	5.102298e-10	1.022340e-01	1.016915e+00	1.000036e+00	
138	5.111754e-10	1.116897e-01	1.017484e+00	1.000037e+00	
139	5.122122e-10	1.220582e-01	1.018033e+00	1.000037e+00	
140	5.133577e-10	1.335124e-01	1.018566e+00	1.000037e+00	
141	5.146365e-10	1.463011e-01	1.019089e+00	1.000037e+00	
142	5.160820e-10	1.607560e-01	1.019610e+00	1.000037e+00	
143	5.177463e-10	1.773990e-01	1.020140e+00	1.000037e+00	
144	5.197160e-10	1.970955e-01	1.020693e+00	1.000037e+00	
145	5.221770e-10	2.217057e-01	1.021291e+00	1.000037e+00	
146	5.257649e-10	2.575844e-01	1.021955e+00	1.000036e+00	
147	5.280923e-10	2.808584e-01	1.022205e+00	1.000036e+00	
148	5.299605e-10	2.995404e-01	1.022240e+00	1.000035e+00	
149	5.314529e-10	3.144638e-01	1.022116e+00	1.000034e+00	
150	5.325762e-10	3.256961e-01	1.021905e+00	1.000033e+00	
151	5.334952e-10	3.348859e-01	1.021639e+00	1.000033e+00	
152	5.343108e-10	3.430418e-01	1.021319e+00	1.000032e+00	
153	5.351284e-10	3.512170e-01	1.020905e+00	1.000031e+00	
154	5.359144e-10	3.590760e-01	1.020408e+00	1.000031e+00	
155	5.367433e-10	3.673639e-01	1.019762e+00	1.000030e+00	
156	5.377022e-10	3.769527e-01	1.018835e+00	1.000028e+00	
157	5.386112e-10	3.860412e-01	1.017753e+00	1.000027e+00	
158	5.394996e-10	3.949241e-01	1.016475e+00	1.000026e+00	
159	5.403302e-10	4.032291e-01	1.015057e+00	1.000024e+00	
160	5.411301e-10	4.112278e-01	1.013463e+00	1.000023e+00	
161	5.418940e-10	4.188654e-01	1.011708e+00	1.000021e+00	
162	5.426335e-10	4.262597e-01	1.009769e+00	1.000020e+00	
163	5.433476e-10	4.334001e-01	1.007652e+00	1.000018e+00	
164	5.440411e-10	4.403340e-01	1.005347e+00	1.000016e+00	
165	5.447136e-10	4.470582e-01	1.002855e+00	1.000014e+00	
166	5.453671e-10	4.535918e-01	1.000175e+00	1.000013e+00	
167	5.454315e-10	4.542368e-01	9.999131e-01	1.000010e+00	
168	5.454449e-10	4.543711e-01	9.998632e-01	1.000009e+00	
169	5.454494e-10	4.544166e-01	9.998464e-01	1.000009e+00	
170	5.454538e-10	4.544604e-01	9.998300e-01	1.000009e+00	

Index   time            v(1)            v(2)            v(3)            
--------------------------------------------------------------------------------
171	5.454582e-10	4.545043e-01	9.998137e-01	1.000009e+00	
172	5.454657e-10	4.545792e-01	9.997857e-01	1.000009e+00	
173	5.454807e-10	4.547290e-01	9.997296e-01	1.000009e+00	
174	5.455106e-10	4.550287e-01	9.996169e-01	1.000009e+00	
175	5.455706e-10	4.556280e-01	9.993897e-01	1.000009e+00	
176	5.456904e-10	4.568265e-01	9.989279e-01	1.000009e+00	
177	5.459302e-10	4.592236e-01	9.979738e-01	1.000008e+00	
178	5.464097e-10	4.640179e-01	9.959377e-01	1.000006e+00	
179	5.471993e-10	4.719129e-01	9.921816e-01	1.000004e+00	
180	5.479544e-10	4.794630e-01	9.880631e-01	1.000002e+00	
181	5.485694e-10	4.856121e-01	9.842717e-01	9.999997e-01	
182	5.490929e-10	4.908459e-01	9.806892e-01	9.999982e-01	
183	5.495006e-10	4.949219e-01	9.776428e-01	9.999971e-01	
184	5.498468e-10	4.983832e-01	9.748585e-01	9.999962e-01	
185	5.501494e-10	5.014094e-01	9.722600e-01	9.999955e-01	
186	5.504531e-10	5.044458e-01	9.694838e-01	9.999948e-01	
187	5.507265e-10	5.071794e-01	9.668256e-01	9.999944e-01	
188	5.509765e-10	5.096783e-01	9.642518e-01	9.999940e-01	
189	5.512093e-10	5.120059e-01	9.617203e-01	9.999937e-01	
190	5.514281e-10	5.141936e-01	9.592137e-01	9.999936e-01	
191	5.516365e-10	5.162771e-01	9.567033e-01	9.999935e-01	
192	5.518377e-10	5.182884e-01	9.541581e-01	9.999934e-01	
193	5.520343e-10	5.202542e-01	9.515476e-01	9.999935e-01	
194	5.522291e-10	5.222017e-01	9.488347e-01	9.999936e-01	
195	5.524250e-10	5.241606e-01	9.459719e-01	9.999938e-01	
196	5.526258e-10	5.261679e-01	9.428924e-01	9.999940e-01	
197	5.528367e-10	5.282762e-01	9.394921e-01	9.999943e-01	
198	5.530664e-10	5.305732e-01	9.355872e-01	9.999947e-01	
199	5.533337e-10	5.332452e-01	9.307746e-01	9.999952e-01	
200	5.537001e-10	5.369084e-01	9.236956e-01	9.999959e-01	
201	5.539862e-10	5.397685e-01	9.177809e-01	9.999965e-01	
202	5.542152e-10	5.420577e-01	9.128039e-01	9.999969e-01	
203	5.544190e-10	5.440956e-01	9.081939e-01	9.999973e-01	
204	5.546236e-10	5.461409e-01	9.033999e-01	9.999976e-01	
205	5.548168e-10	5.480728e-01	8.987201e-01	9.999979e-01	
206	5.550057e-10	5.499612e-01	8.940049e-01	9.999982e-01	
207	5.551934e-10	5.518370e-01	8.891844e-01	9.999985e-01	
208	5.553828e-10	5.537309e-01	8.841803e-01	9.999988e-01	
209	5.555758e-10	5.556601e-01	8.789415e-01	9.999992e-01	
210	5.557740e-10	5.576416e-01	8.734121e-01	9.999995e-01	
211	5.559788e-10	5.596891e-01	8.675400e-01	9.999999e-01	
212	5.561920e-10	5.618203e-01	8.612554e-01	1.000000e+00	
213	5.564157e-10	5.640558e-01	8.544733e-01	1.000001e+00	
214	5.566533e-10	5.664317e-01	8.470511e-01	1.000001e+00	
215	5.569107e-10	5.690042e-01	8.387660e-01	1.000002e+00	
216	5.571969e-10	5.718648e-01	8.292514e-01	1.000003e+00	
217	5.575234e-10	5.751289e-01	8.180117e-01	1.000004e+00	
218	5.579036e-10	5.789297e-01	8.044193e-01	1.000004e+00	
219	5.583528e-10	5.834200e-01	7.876768e-01	1.000005e+00	
220	5.588980e-10	5.888698e-01	7.663888e-01	1.000006e+00	
221	5.594675e-10	5.945633e-01	7.430510e-01	1.000007e+00	
222	5.600426e-10	6.003126e-01	7.183889e-01	1.000008e+00	
223	5.606083e-10	6.059677e-01	6.930991e-01	1.000009e+00	
224	5.611614e-10	6.114968e-01	6.674281e-01	1.000010e+00	
225	5.616983e-10	6.168650e-01	6.416531e-01	1.000010e+00	
226	5.622196e-10	6.220765e-01	6.158695e-01	1.000011e+00	
227	5.627255e-10	6.271350e-01	5.901669e-01	1.000011e+00	
228	5.632175e-10	6.320536e-01	5.645753e-01	1.000012e+00	

Index   time            v(1)            v(2)            v(3)            
--------------------------------------------------------------------------------
229	5.636961e-10	6.368385e-01	5.391505e-01	1.000012e+00	
230	5.641617e-10	6.414942e-01	5.139483e-01	1.000012e+00	
231	5.646140e-10	6.460166e-01	4.890657e-01	1.000012e+00	
232	5.650522e-10	6.503978e-01	4.646176e-01	1.000012e+00	
233	5.654747e-10	6.546223e-01	4.407605e-01	1.000013e+00	
234	5.658796e-10	6.586720e-01	4.176635e-01	1.000013e+00	
235	5.662649e-10	6.625245e-01	3.955181e-01	1.000013e+00	
236	5.666284e-10	6.661598e-01	3.744994e-01	1.000013e+00	
237	5.669684e-10	6.695597e-01	3.547656e-01	1.000012e+00	
238	5.672839e-10	6.727145e-01	3.364198e-01	1.000012e+00	
239	5.675745e-10	6.756208e-01	3.195166e-01	1.000012e+00	
240	5.678409e-10	6.782858e-01	3.040420e-01	1.000012e+00	
241	5.680846e-10	6.807225e-01	2.899374e-01	1.000012e+00	
242	5.683074e-10	6.829511e-01	2.770968e-01	1.000012e+00	
243	5.685116e-10	6.849938e-01	2.653973e-01	1.000012e+00	
244	5.686997e-10	6.868752e-01	2.546982e-01	1.000012e+00	
245	5.688740e-10	6.886188e-01	2.448655e-01	1.000012e+00	
246	5.690368e-10	6.902476e-01	2.357656e-01	1.000012e+00	
247	5.691902e-10	6.917818e-01	2.272841e-01	1.000012e+00	
248	5.693360e-10	6.932406e-01	2.193126e-01	1.000012e+00	
249	5.694758e-10	6.946392e-01	2.117660e-01	1.000012e+00	
250	5.696110e-10	6.959927e-01	2.045643e-01	1.000012e+00	
251	5.697429e-10	6.973122e-01	1.976486e-01	1.000012e+00	
252	5.698726e-10	6.986095e-01	1.909608e-01	1.000012e+00	
253	5.700009e-10	6.998936e-01	1.844591e-01	1.000012e+00	
254	5.701290e-10	7.011754e-01	1.780961e-01	1.000012e+00	
255	5.702577e-10	7.024641e-01	1.718346e-01	1.000012e+00	
256	5.703885e-10	7.037728e-01	1.656248e-01	1.000012e+00	
257	5.705226e-10	7.051152e-01	1.594189e-01	1.000011e+00	
258	5.706623e-10	7.065127e-01	1.531434e-01	1.000011e+00	
259	5.708102e-10	7.079937e-01	1.467074e-01	1.000011e+00	
260	5.709715e-10	7.096080e-01	1.399507e-01	1.000011e+00	
261	5.711552e-10	7.114463e-01	1.325925e-01	1.000011e+00	
262	5.713843e-10	7.137400e-01	1.239176e-01	1.000011e+00	
263	5.715479e-10	7.153775e-01	1.180655e-01	1.000011e+00	
264	5.716860e-10	7.167593e-01	1.133439e-01	1.000011e+00	
265	5.718244e-10	7.181453e-01	1.088032e-01	1.000011e+00	
266	5.719513e-10	7.194154e-01	1.048089e-01	1.000011e+00	
267	5.720725e-10	7.206287e-01	1.011374e-01	1.000011e+00	
268	5.721908e-10	7.218127e-01	9.768608e-02	1.000011e+00	
269	5.723084e-10	7.229897e-01	9.437987e-02	1.000011e+00	
270	5.724266e-10	7.241724e-01	9.117868e-02	1.000011e+00	
271	5.725465e-10	7.253726e-01	8.804946e-02	1.000011e+00	
272	5.726690e-10	7.265989e-01	8.497191e-02	1.000011e+00	
273	5.727953e-10	7.278624e-01	8.192280e-02	1.000011e+00	
274	5.729261e-10	7.291716e-01	7.888828e-02	1.000011e+00	
275	5.730628e-10	7.305392e-01	7.584840e-02	1.000011e+00	
276	5.732064e-10	7.319768e-01	7.279022e-02	1.000011e+00	
277	5.733588e-10	7.335020e-01	6.969240e-02	1.000011e+00	
278	5.735218e-10	7.351334e-01	6.653789e-02	1.000011e+00	
279	5.736984e-10	7.369002e-01	6.329745e-02	1.000011e+00	
280	5.738913e-10	7.388312e-01	5.995373e-02	1.000011e+00	
281	5.740908e-10	7.408272e-01	5.670215e-02	1.000011e+00	
282	5.742978e-10	7.428989e-01	5.353421e-02	1.000011e+00	
283	5.745121e-10	7.450428e-01	5.046423e-02	1.000011e+00	
284	5.747343e-10	7.472666e-01	4.748963e-02	1.000011e+00	
285	5.749649e-10	7.495739e-01	4.461471e-02	1.000011e+00	
286	5.752042e-10	7.519672e-01	4.184480e-02	1.000010e+00	

Index   time            v(1)            v(2)            v(3)            
--------------------------------------------------------------------------------
287	5.754524e-10	7.544509e-01	3.918322e-02	1.000010e+00	
288	5.757098e-10	7.570265e-01	3.663575e-02	1.000010e+00	
289	5.759770e-10	7.596995e-01	3.420413e-02	1.000010e+00	
290	5.762542e-10	7.624723e-01	3.189252e-02	1.000010e+00	
291	5.765420e-10	7.653518e-01	2.970100e-02	1.000010e+00	
292	5.768410e-10	7.683424e-01	2.763173e-02	1.000010e+00	
293	5.771425e-10	7.713590e-01	2.573947e-02	1.000010e+00	
294	5.774421e-10	7.743556e-01	2.403672e-02	1.000010e+00	
295	5.777409e-10	7.773444e-01	2.249839e-02	1.000010e+00	
296	5.780414e-10	7.803500e-01	2.109809e-02	1.000010e+00	
297	5.783459e-10	7.833961e-01	1.981535e-02	1.000010e+00	
298	5.786566e-10	7.865030e-01	1.863529e-02	1.000010e+00	
299	5.789747e-10	7.896845e-01	1.754831e-02	1.000010e+00	
300	5.793019e-10	7.929578e-01	1.654550e-02	1.000010e+00	
301	5.796396e-10	7.963355e-01	1.562100e-02	1.000010e+00	
302	5.799897e-10	7.998369e-01	1.476828e-02	1.000010e+00	
303	5.803537e-10	8.034769e-01	1.398316e-02	1.000010e+00	
304	5.807339e-10	8.072790e-01	1.326056e-02	1.000010e+00	
305	5.811322e-10	8.112625e-01	1.259729e-02	1.000010e+00	
306	5.815516e-10	8.154575e-01	1.198921e-02	1.000010e+00	
307	5.819950e-10	8.198910e-01	1.143363e-02	1.000010e+00	
308	5.824662e-10	8.246035e-01	1.092699e-02	1.000010e+00	
309	5.829694e-10	8.296354e-01	1.046679e-02	1.000010e+00	
310	5.835103e-10	8.350447e-01	1.004976e-02	1.000010e+00	
311	5.840952e-10	8.408943e-01	9.673325e-03	1.000010e+00	
312	5.847331e-10	8.472735e-01	9.334196e-03	1.000010e+00	
313	5.854345e-10	8.542871e-01	9.029428e-03	1.000010e+00	
314	5.862142e-10	8.620842e-01	8.755303e-03	1.000010e+00	
315	5.870912e-10	8.708550e-01	8.508045e-03	1.000010e+00	
316	5.880934e-10	8.808772e-01	8.282847e-03	1.000010e+00	
317	5.892596e-10	8.925387e-01	8.074200e-03	1.000010e+00	
318	5.906499e-10	9.064421e-01	7.874825e-03	1.000010e+00	
319	5.923591e-10	9.235332e-01	7.675347e-03	1.000010e+00	
320	5.945517e-10	9.454599e-01	7.462360e-03	1.000010e+00	
321	5.975368e-10	9.753104e-01	7.216019e-03	1.000010e+00	
322	6.000000e-10	9.999424e-01	7.036792e-03	1.000011e+00	
323	6.000003e-10	9.999457e-01	7.036688e-03	1.000010e+00	
324	6.000010e-10	9.999517e-01	7.036328e-03	1.000010e+00	
325	6.000013e-10	9.999535e-01	7.036151e-03	1.000010e+00	
326	6.000015e-10	9.999551e-01	7.035955e-03	1.000010e+00	
327	6.000019e-10	9.999581e-01	7.035497e-03	1.000009e+00	
328	6.000025e-10	9.999619e-01	7.034731e-03	1.000009e+00	
329	6.000031e-10	9.999653e-01	7.033809e-03	1.000008e+00	
330	6.000037e-10	9.999683e-01	7.032764e-03	1.000007e+00	
331	6.000043e-10	9.999709e-01	7.031651e-03	1.000007e+00	
332	6.000048e-10	9.999733e-01	7.030445e-03	1.000006e+00	
333	6.000054e-10	9.999754e-01	7.029145e-03	1.000006e+00	
334	6.000060e-10	9.999773e-01	7.027732e-03	1.000005e+00	
335	6.000066e-10	9.999791e-01	7.026199e-03	1.000005e+00	
336	6.000073e-10	9.999808e-01	7.024537e-03	1.000004e+00	
337	6.000079e-10	9.999824e-01	7.022734e-03	1.000004e+00	
338	6.000087e-10	9.999838e-01	7.020781e-03	1.000003e+00	
339	6.000094e-10	9.999851e-01	7.018659e-03	1.000003e+00	
340	6.000102e-10	9.999863e-01	7.016354e-03	1.000002e+00	
341	6.000110e-10	9.999874e-01	7.013845e-03	1.000002e+00	
342	6.000119e-10	9.999885e-01	7.011109e-03	1.000002e+00	
343	6.000128e-10	9.999894e-01	7.008115e-03	1.000001e+00	
344	6.000139e-10	9.999902e-01	7.004832e-03	1.000001e+00	

Index   time            v(1)            v(2)            v(3)            
--------------------------------------------------------------------------------
345	6.000150e-10	9.999910e-01	7.001214e-03	1.000001e+00	
346	6.000162e-10	9.999916e-01	6.997209e-03	1.000001e+00	
347	6.000175e-10	9.999922e-01	6.992747e-03	1.000001e+00	
348	6.000190e-10	9.999927e-01	6.987743e-03	1.000000e+00	
349	6.000207e-10	9.999931e-01	6.982075e-03	1.000000e+00	
350	6.000226e-10	9.999935e-01	6.975589e-03	1.000000e+00	
351	6.000248e-10	9.999937e-01	6.968056e-03	1.000000e+00	
352	6.000274e-10	9.999939e-01	6.959158e-03	1.000000e+00	
353	6.000306e-10	9.999941e-01	6.948395e-03	1.000000e+00	
354	6.000345e-10	9.999942e-01	6.934984e-03	1.000000e+00	
355	6.000396e-10	9.999943e-01	6.917557e-03	1.000000e+00	
356	6.000466e-10	9.999943e-01	6.893557e-03	1.000000e+00	
357	6.000572e-10	9.999944e-01	6.857498e-03	1.000000e+00	
358	6.000755e-10	9.999944e-01	6.795465e-03	1.000000e+00	
359	6.001122e-10	9.999945e-01	6.673059e-03	1.000000e+00	
360	6.001855e-10	9.999947e-01	6.434742e-03	1.000000e+00	
361	6.003322e-10	9.999951e-01	5.982984e-03	1.000000e+00	
362	6.005383e-10	9.999955e-01	5.400595e-03	1.000000e+00	
363	6.007593e-10	9.999960e-01	4.838355e-03	1.000000e+00	
364	6.009903e-10	9.999964e-01	4.312805e-03	1.000000e+00	
365	6.012269e-10	9.999968e-01	3.833242e-03	1.000000e+00	
366	6.014757e-10	9.999972e-01	3.386129e-03	1.000000e+00	
367	6.017372e-10	9.999975e-01	2.971852e-03	1.000000e+00	
368	6.020147e-10	9.999979e-01	2.587272e-03	1.000000e+00	
369	6.023093e-10	9.999981e-01	2.233185e-03	1.000000e+00	
370	6.026235e-10	9.999984e-01	1.908429e-03	1.000000e+00	
371	6.029598e-10	9.999987e-01	1.612781e-03	1.000000e+00	
372	6.033218e-10	9.999989e-01	1.345355e-03	1.000000e+00	
373	6.037134e-10	9.999991e-01	1.105571e-03	1.000000e+00	
374	6.041399e-10	9.999993e-01	8.926325e-04	1.000000e+00	
375	6.046075e-10	9.999994e-01	7.057905e-04	1.000000e+00	
376	6.051246e-10	9.999995e-01	5.441696e-04	1.000000e+00	
377	6.057022e-10	9.999997e-01	4.068255e-04	1.000000e+00	
378	6.063547e-10	9.999998e-01	2.926687e-04	1.000000e+00	
379	6.071025e-10	9.999998e-01	2.004485e-04	1.000000e+00	
380	6.079744e-10	9.999999e-01	1.286891e-04	1.000000e+00	
381	6.090132e-10	9.999999e-01	7.562943e-05	1.000000e+00	
382	6.102860e-10	1.000000e+00	3.914097e-05	1.000000e+00	
383	6.119043e-10	1.000000e+00	1.664122e-05	1.000000e+00	
384	6.140690e-10	1.000000e+00	5.425540e-06	1.000000e+00	
385	6.172109e-10	1.000000e+00	1.334063e-06	1.000000e+00	
386	6.221149e-10	1.000000e+00	1.040315e-07	1.000000e+00	
387	6.317580e-10	1.000000e+00	1.341457e-07	1.000000e+00	
388	6.417580e-10	1.000000e+00	1.146819e-07	1.000000e+00	
389	6.517580e-10	1.000000e+00	1.185458e-07	1.000000e+00	
390	6.617580e-10	1.000000e+00	1.168874e-07	1.000000e+00	
391	6.717580e-10	1.000000e+00	1.175995e-07	1.000000e+00	
392	6.817580e-10	1.000000e+00	1.172934e-07	1.000000e+00	
393	6.917580e-10	1.000000e+00	1.174253e-07	1.000000e+00	
394	7.017580e-10	1.000000e+00	1.173682e-07	1.000000e+00	
395	7.117580e-10	1.000000e+00	1.173932e-07	1.000000e+00	
396	7.217580e-10	1.000000e+00	1.173820e-07	1.000000e+00	
397	7.317580e-10	1.000000e+00	1.173873e-07	1.000000e+00	
398	7.417580e-10	1.000000e+00	1.173845e-07	1.000000e+00	
399	7.517580e-10	1.000000e+00	1.173862e-07	1.000000e+00	
400	7.617580e-10	1.000000e+00	1.173850e-07	1.000000e+00	
401	7.717580e-10	1.000000e+00	1.173860e-07	1.000000e+00	
402	7.817580e-10	1.000000e+00	1.173851e-07	1.000000e+00	

Index   time            v(1)            v(2)            v(3)            
--------------------------------------------------------------------------------
403	7.917580e-10	1.000000e+00	1.173859e-07	1.000000e+00	
404	8.017580e-10	1.000000e+00	1.173851e-07	1.000000e+00	
405	8.117580e-10	1.000000e+00	1.173859e-07	1.000000e+00	
406	8.217580e-10	1.000000e+00	1.173851e-07	1.000000e+00	
407	8.317580e-10	1.000000e+00	1.173859e-07	1.000000e+00	
408	8.417580e-10	1.000000e+00	1.173851e-07	1.000000e+00	
409	8.517580e-10	1.000000e+00	1.173859e-07	1.000000e+00	
410	8.617580e-10	1.000000e+00	1.173851e-07	1.000000e+00	
411	8.717580e-10	1.000000e+00	1.173859e-07	1.000000e+00	
412	8.817580e-10	1.000000e+00	1.173852e-07	1.000000e+00	
413	8.917580e-10	1.000000e+00	1.173859e-07	1.000000e+00	
414	9.017580e-10	1.000000e+00	1.173852e-07	1.000000e+00	
415	9.117580e-10	1.000000e+00	1.173859e-07	1.000000e+00	
416	9.217580e-10	1.000000e+00	1.173852e-07	1.000000e+00	
417	9.317580e-10	1.000000e+00	1.173858e-07	1.000000e+00	
418	9.417580e-10	1.000000e+00	1.173852e-07	1.000000e+00	
419	9.517580e-10	1.000000e+00	1.173858e-07	1.000000e+00	
420	9.617580e-10	1.000000e+00	1.173852e-07	1.000000e+00	
421	9.717580e-10	1.000000e+00	1.173858e-07	1.000000e+00	
422	9.817580e-10	1.000000e+00	1.173852e-07	1.000000e+00	
423	9.917580e-10	1.000000e+00	1.173858e-07	1.000000e+00	
424	1.000000e-09	1.000000e+00	1.173852e-07	1.000000e+00	

                 *inv for trace the correctness of matlab model
                 Transient Analysis  Tue Feb 26 16:07:33  2013
--------------------------------------------------------------------------------
Index   time            v(4)            v(5)            
--------------------------------------------------------------------------------
0	0.000000e+00	9.991153e-01	0.000000e+00	
1	5.000000e-14	9.991153e-01	2.671976e-15	
2	1.000000e-13	9.991153e-01	2.947258e-15	
3	2.000000e-13	9.991153e-01	3.558693e-15	
4	4.000000e-13	9.991153e-01	-3.12177e-15	
5	8.000000e-13	9.991153e-01	-7.90915e-16	
6	1.600000e-12	9.991153e-01	2.340925e-15	
7	3.200000e-12	9.991153e-01	-1.31035e-15	
8	6.400000e-12	9.991153e-01	2.679427e-15	
9	1.280000e-11	9.991153e-01	-1.05730e-15	
10	2.280000e-11	9.991153e-01	1.778985e-15	
11	3.280000e-11	9.991153e-01	-2.83158e-16	
12	4.280000e-11	9.991153e-01	-1.82561e-15	
13	5.280000e-11	9.991153e-01	-4.05324e-16	
14	6.280000e-11	9.991153e-01	2.043484e-15	
15	7.280000e-11	9.991153e-01	-2.29964e-16	
16	8.280000e-11	9.991153e-01	3.019388e-16	
17	9.280000e-11	9.991153e-01	1.241208e-16	
18	1.028000e-10	9.991153e-01	-1.26682e-15	
19	1.128000e-10	9.991153e-01	1.116105e-15	
20	1.228000e-10	9.991153e-01	-1.10300e-15	
21	1.328000e-10	9.991153e-01	-4.71649e-17	
22	1.428000e-10	9.991153e-01	-3.74224e-16	
23	1.528000e-10	9.991153e-01	1.847023e-16	
24	1.628000e-10	9.991153e-01	2.635776e-16	
25	1.728000e-10	9.991153e-01	1.266434e-15	
26	1.828000e-10	9.991153e-01	-1.24389e-15	
27	1.928000e-10	9.991153e-01	2.353066e-16	
28	2.028000e-10	9.991153e-01	1.346998e-17	
29	2.128000e-10	9.991153e-01	-6.99951e-16	
30	2.228000e-10	9.991153e-01	4.929305e-16	
31	2.328000e-10	9.991153e-01	2.055217e-16	
32	2.428000e-10	9.991153e-01	-1.64783e-16	
33	2.528000e-10	9.991153e-01	-1.02532e-15	
34	2.628000e-10	9.991153e-01	1.905553e-15	
35	2.728000e-10	9.991153e-01	-1.13056e-15	
36	2.828000e-10	9.991153e-01	9.850978e-16	
37	2.928000e-10	9.991153e-01	-1.52054e-15	
38	3.028000e-10	9.991153e-01	1.338204e-15	
39	3.128000e-10	9.991153e-01	1.488726e-16	
40	3.228000e-10	9.991153e-01	-6.23129e-16	
41	3.328000e-10	9.991153e-01	-9.61094e-16	
42	3.428000e-10	9.991153e-01	1.539902e-15	
43	3.528000e-10	9.991153e-01	-1.42745e-15	
44	3.628000e-10	9.991153e-01	2.096160e-15	
45	3.728000e-10	9.991153e-01	-8.87323e-16	
46	3.828000e-10	9.991153e-01	-7.77262e-17	
47	3.928000e-10	9.991153e-01	6.582559e-16	
48	4.028000e-10	9.991153e-01	-1.95173e-15	
49	4.128000e-10	9.991153e-01	4.685106e-16	
50	4.228000e-10	9.991153e-01	5.032995e-16	
51	4.328000e-10	9.991153e-01	-5.99802e-16	
52	4.428000e-10	9.991153e-01	1.086724e-15	
53	4.528000e-10	9.991153e-01	-1.17179e-15	
54	4.628000e-10	9.991153e-01	1.711149e-15	

Index   time            v(4)            v(5)            
--------------------------------------------------------------------------------
55	4.728000e-10	9.991153e-01	-9.94551e-16	
56	4.828000e-10	9.991153e-01	1.276117e-15	
57	4.928000e-10	9.991153e-01	-2.73871e-16	
58	5.000000e-10	9.991153e-01	-2.48005e-15	
59	5.000005e-10	9.991156e-01	6.129791e-07	
60	5.000016e-10	9.991167e-01	2.838872e-06	
61	5.000019e-10	9.991173e-01	3.878092e-06	
62	5.000022e-10	9.991178e-01	4.985148e-06	
63	5.000026e-10	9.991185e-01	6.406937e-06	
64	5.000030e-10	9.991195e-01	8.373363e-06	
65	5.000035e-10	9.991206e-01	1.070724e-05	
66	5.000040e-10	9.991219e-01	1.347423e-05	
67	5.000046e-10	9.991233e-01	1.664392e-05	
68	5.000052e-10	9.991250e-01	2.032774e-05	
69	5.000058e-10	9.991268e-01	2.457166e-05	
70	5.000065e-10	9.991289e-01	2.948054e-05	
71	5.000073e-10	9.991313e-01	3.513582e-05	
72	5.000082e-10	9.991340e-01	4.165710e-05	
73	5.000091e-10	9.991370e-01	4.916901e-05	
74	5.000102e-10	9.991404e-01	5.782252e-05	
75	5.000114e-10	9.991442e-01	6.772229e-05	
76	5.000126e-10	9.991480e-01	7.801849e-05	
77	5.000139e-10	9.991522e-01	8.930983e-05	
78	5.000152e-10	9.991565e-01	1.011389e-04	
79	5.000166e-10	9.991611e-01	1.140928e-04	
80	5.000181e-10	9.991659e-01	1.277484e-04	
81	5.000196e-10	9.991711e-01	1.426545e-04	
82	5.000213e-10	9.991766e-01	1.584645e-04	
83	5.000231e-10	9.991825e-01	1.757267e-04	
84	5.000250e-10	9.991888e-01	1.941797e-04	
85	5.000271e-10	9.991956e-01	2.143988e-04	
86	5.000293e-10	9.992029e-01	2.362282e-04	
87	5.000317e-10	9.992110e-01	2.603213e-04	
88	5.000344e-10	9.992198e-01	2.866766e-04	
89	5.000374e-10	9.992296e-01	3.161189e-04	
90	5.000406e-10	9.992404e-01	3.489115e-04	
91	5.000444e-10	9.992528e-01	3.862500e-04	
92	5.000489e-10	9.992676e-01	4.310369e-04	
93	5.000545e-10	9.992862e-01	4.872432e-04	
94	5.000619e-10	9.993104e-01	5.608377e-04	
95	5.000721e-10	9.993440e-01	6.628369e-04	
96	5.000875e-10	9.993946e-01	8.171263e-04	
97	5.001144e-10	9.994826e-01	1.086099e-03	
98	5.001682e-10	9.996573e-01	1.624044e-03	
99	5.002758e-10	1.000002e+00	2.699936e-03	
100	5.002842e-10	1.000029e+00	2.784190e-03	
101	5.002857e-10	1.000034e+00	2.798681e-03	
102	5.002861e-10	1.000036e+00	2.802826e-03	
103	5.002866e-10	1.000038e+00	2.807632e-03	
104	5.002875e-10	1.000041e+00	2.817252e-03	
105	5.002884e-10	1.000045e+00	2.826004e-03	
106	5.002896e-10	1.000049e+00	2.838708e-03	
107	5.002914e-10	1.000056e+00	2.856232e-03	
108	5.002936e-10	1.000064e+00	2.878683e-03	
109	5.002966e-10	1.000076e+00	2.908882e-03	
110	5.003000e-10	1.000089e+00	2.942527e-03	
111	5.003036e-10	1.000103e+00	2.979069e-03	
112	5.003082e-10	1.000120e+00	3.025519e-03	

Index   time            v(4)            v(5)            
--------------------------------------------------------------------------------
113	5.003138e-10	1.000142e+00	3.081506e-03	
114	5.003219e-10	1.000172e+00	3.162183e-03	
115	5.003326e-10	1.000213e+00	3.269351e-03	
116	5.003510e-10	1.000282e+00	3.453335e-03	
117	5.003831e-10	1.000402e+00	3.773623e-03	
118	5.004471e-10	1.000640e+00	4.414199e-03	
119	5.005753e-10	1.001107e+00	5.695357e-03	
120	5.008315e-10	1.002005e+00	8.257686e-03	
121	5.011937e-10	1.003197e+00	1.187904e-02	
122	5.015783e-10	1.004372e+00	1.572458e-02	
123	5.019799e-10	1.005505e+00	1.974025e-02	
124	5.023883e-10	1.006568e+00	2.382320e-02	
125	5.028153e-10	1.007592e+00	2.809277e-02	
126	5.032600e-10	1.008571e+00	3.253973e-02	
127	5.037277e-10	1.009513e+00	3.721630e-02	
128	5.042181e-10	1.010415e+00	4.212019e-02	
129	5.047350e-10	1.011280e+00	4.728849e-02	
130	5.052797e-10	1.012105e+00	5.273544e-02	
131	5.058563e-10	1.012894e+00	5.850136e-02	
132	5.064676e-10	1.013646e+00	6.461398e-02	
133	5.071185e-10	1.014364e+00	7.112270e-02	
134	5.078133e-10	1.015047e+00	7.807045e-02	
135	5.085586e-10	1.015699e+00	8.552325e-02	
136	5.093610e-10	1.016321e+00	9.354647e-02	
137	5.102298e-10	1.016915e+00	1.022345e-01	
138	5.111754e-10	1.017484e+00	1.116902e-01	
139	5.122122e-10	1.018033e+00	1.220587e-01	
140	5.133577e-10	1.018566e+00	1.335130e-01	
141	5.146365e-10	1.019089e+00	1.463016e-01	
142	5.160820e-10	1.019610e+00	1.607566e-01	
143	5.177463e-10	1.020140e+00	1.773995e-01	
144	5.197160e-10	1.020693e+00	1.970960e-01	
145	5.221770e-10	1.021291e+00	2.217062e-01	
146	5.257649e-10	1.021955e+00	2.575850e-01	
147	5.280923e-10	1.022205e+00	2.808589e-01	
148	5.299605e-10	1.022240e+00	2.995409e-01	
149	5.314529e-10	1.022116e+00	3.144644e-01	
150	5.325762e-10	1.021905e+00	3.256966e-01	
151	5.334952e-10	1.021639e+00	3.348865e-01	
152	5.343108e-10	1.021319e+00	3.430423e-01	
153	5.351284e-10	1.020905e+00	3.512175e-01	
154	5.359144e-10	1.020408e+00	3.590765e-01	
155	5.367433e-10	1.019762e+00	3.673645e-01	
156	5.377022e-10	1.018835e+00	3.769533e-01	
157	5.386112e-10	1.017753e+00	3.860418e-01	
158	5.394996e-10	1.016475e+00	3.949247e-01	
159	5.403302e-10	1.015057e+00	4.032298e-01	
160	5.411301e-10	1.013463e+00	4.112285e-01	
161	5.418940e-10	1.011708e+00	4.188660e-01	
162	5.426335e-10	1.009769e+00	4.262604e-01	
163	5.433476e-10	1.007653e+00	4.334007e-01	
164	5.440411e-10	1.005347e+00	4.403347e-01	
165	5.447136e-10	1.002855e+00	4.470589e-01	
166	5.453671e-10	1.000175e+00	4.535925e-01	
167	5.454315e-10	9.999132e-01	4.542374e-01	
168	5.454449e-10	9.998632e-01	4.543718e-01	
169	5.454494e-10	9.998464e-01	4.544173e-01	
170	5.454538e-10	9.998301e-01	4.544611e-01	

Index   time            v(4)            v(5)            
--------------------------------------------------------------------------------
171	5.454582e-10	9.998137e-01	4.545050e-01	
172	5.454657e-10	9.997857e-01	4.545799e-01	
173	5.454807e-10	9.997296e-01	4.547297e-01	
174	5.455106e-10	9.996169e-01	4.550293e-01	
175	5.455706e-10	9.993898e-01	4.556286e-01	
176	5.456904e-10	9.989280e-01	4.568272e-01	
177	5.459302e-10	9.979738e-01	4.592243e-01	
178	5.464097e-10	9.959377e-01	4.640186e-01	
179	5.471993e-10	9.921816e-01	4.719136e-01	
180	5.479544e-10	9.880632e-01	4.794637e-01	
181	5.485694e-10	9.842717e-01	4.856128e-01	
182	5.490929e-10	9.806893e-01	4.908466e-01	
183	5.495006e-10	9.776429e-01	4.949226e-01	
184	5.498468e-10	9.748586e-01	4.983839e-01	
185	5.501494e-10	9.722601e-01	5.014102e-01	
186	5.504531e-10	9.694839e-01	5.044465e-01	
187	5.507265e-10	9.668257e-01	5.071801e-01	
188	5.509765e-10	9.642519e-01	5.096790e-01	
189	5.512093e-10	9.617204e-01	5.120067e-01	
190	5.514281e-10	9.592138e-01	5.141943e-01	
191	5.516365e-10	9.567034e-01	5.162779e-01	
192	5.518377e-10	9.541582e-01	5.182892e-01	
193	5.520343e-10	9.515477e-01	5.202550e-01	
194	5.522291e-10	9.488348e-01	5.222025e-01	
195	5.524250e-10	9.459720e-01	5.241614e-01	
196	5.526258e-10	9.428926e-01	5.261687e-01	
197	5.528367e-10	9.394923e-01	5.282770e-01	
198	5.530664e-10	9.355873e-01	5.305740e-01	
199	5.533337e-10	9.307748e-01	5.332460e-01	
200	5.537001e-10	9.236958e-01	5.369092e-01	
201	5.539862e-10	9.177811e-01	5.397693e-01	
202	5.542152e-10	9.128041e-01	5.420585e-01	
203	5.544190e-10	9.081941e-01	5.440965e-01	
204	5.546236e-10	9.034001e-01	5.461418e-01	
205	5.548168e-10	8.987204e-01	5.480736e-01	
206	5.550057e-10	8.940051e-01	5.499620e-01	
207	5.551934e-10	8.891846e-01	5.518379e-01	
208	5.553828e-10	8.841805e-01	5.537318e-01	
209	5.555758e-10	8.789418e-01	5.556610e-01	
210	5.557740e-10	8.734123e-01	5.576425e-01	
211	5.559788e-10	8.675403e-01	5.596900e-01	
212	5.561920e-10	8.612557e-01	5.618212e-01	
213	5.564157e-10	8.544736e-01	5.640567e-01	
214	5.566533e-10	8.470514e-01	5.664326e-01	
215	5.569107e-10	8.387663e-01	5.690051e-01	
216	5.571969e-10	8.292517e-01	5.718657e-01	
217	5.575234e-10	8.180120e-01	5.751299e-01	
218	5.579036e-10	8.044197e-01	5.789306e-01	
219	5.583528e-10	7.876771e-01	5.834209e-01	
220	5.588980e-10	7.663892e-01	5.888707e-01	
221	5.594675e-10	7.430515e-01	5.945643e-01	
222	5.600426e-10	7.183894e-01	6.003136e-01	
223	5.606083e-10	6.930996e-01	6.059688e-01	
224	5.611614e-10	6.674285e-01	6.114979e-01	
225	5.616983e-10	6.416536e-01	6.168660e-01	
226	5.622196e-10	6.158700e-01	6.220776e-01	
227	5.627255e-10	5.901674e-01	6.271361e-01	
228	5.632175e-10	5.645758e-01	6.320547e-01	

Index   time            v(4)            v(5)            
--------------------------------------------------------------------------------
229	5.636961e-10	5.391511e-01	6.368396e-01	
230	5.641617e-10	5.139489e-01	6.414953e-01	
231	5.646140e-10	4.890662e-01	6.460177e-01	
232	5.650522e-10	4.646182e-01	6.503989e-01	
233	5.654747e-10	4.407611e-01	6.546234e-01	
234	5.658796e-10	4.176641e-01	6.586731e-01	
235	5.662649e-10	3.955187e-01	6.625256e-01	
236	5.666284e-10	3.745000e-01	6.661609e-01	
237	5.669684e-10	3.547661e-01	6.695609e-01	
238	5.672839e-10	3.364204e-01	6.727156e-01	
239	5.675745e-10	3.195172e-01	6.756220e-01	
240	5.678409e-10	3.040426e-01	6.782869e-01	
241	5.680846e-10	2.899379e-01	6.807236e-01	
242	5.683074e-10	2.770973e-01	6.829522e-01	
243	5.685116e-10	2.653979e-01	6.849949e-01	
244	5.686997e-10	2.546987e-01	6.868763e-01	
245	5.688740e-10	2.448661e-01	6.886199e-01	
246	5.690368e-10	2.357662e-01	6.902487e-01	
247	5.691902e-10	2.272846e-01	6.917829e-01	
248	5.693360e-10	2.193132e-01	6.932417e-01	
249	5.694758e-10	2.117665e-01	6.946403e-01	
250	5.696110e-10	2.045648e-01	6.959937e-01	
251	5.697429e-10	1.976491e-01	6.973132e-01	
252	5.698726e-10	1.909613e-01	6.986105e-01	
253	5.700009e-10	1.844596e-01	6.998947e-01	
254	5.701290e-10	1.780965e-01	7.011764e-01	
255	5.702577e-10	1.718351e-01	7.024651e-01	
256	5.703885e-10	1.656252e-01	7.037738e-01	
257	5.705226e-10	1.594194e-01	7.051162e-01	
258	5.706623e-10	1.531439e-01	7.065137e-01	
259	5.708102e-10	1.467079e-01	7.079946e-01	
260	5.709715e-10	1.399511e-01	7.096090e-01	
261	5.711552e-10	1.325929e-01	7.114473e-01	
262	5.713843e-10	1.239179e-01	7.137409e-01	
263	5.715479e-10	1.180658e-01	7.153784e-01	
264	5.716860e-10	1.133443e-01	7.167602e-01	
265	5.718244e-10	1.088035e-01	7.181462e-01	
266	5.719513e-10	1.048092e-01	7.194162e-01	
267	5.720725e-10	1.011377e-01	7.206295e-01	
268	5.721908e-10	9.768637e-02	7.218135e-01	
269	5.723084e-10	9.438014e-02	7.229906e-01	
270	5.724266e-10	9.117895e-02	7.241732e-01	
271	5.725465e-10	8.804971e-02	7.253734e-01	
272	5.726690e-10	8.497216e-02	7.265997e-01	
273	5.727953e-10	8.192303e-02	7.278632e-01	
274	5.729261e-10	7.888851e-02	7.291723e-01	
275	5.730628e-10	7.584862e-02	7.305400e-01	
276	5.732064e-10	7.279043e-02	7.319776e-01	
277	5.733588e-10	6.969260e-02	7.335027e-01	
278	5.735218e-10	6.653808e-02	7.351341e-01	
279	5.736984e-10	6.329762e-02	7.369009e-01	
280	5.738913e-10	5.995390e-02	7.388319e-01	
281	5.740908e-10	5.670230e-02	7.408279e-01	
282	5.742978e-10	5.353436e-02	7.428996e-01	
283	5.745121e-10	5.046436e-02	7.450434e-01	
284	5.747343e-10	4.748976e-02	7.472673e-01	
285	5.749649e-10	4.461483e-02	7.495745e-01	
286	5.752042e-10	4.184491e-02	7.519679e-01	

Index   time            v(4)            v(5)            
--------------------------------------------------------------------------------
287	5.754524e-10	3.918332e-02	7.544515e-01	
288	5.757098e-10	3.663584e-02	7.570272e-01	
289	5.759770e-10	3.420422e-02	7.597001e-01	
290	5.762542e-10	3.189261e-02	7.624729e-01	
291	5.765420e-10	2.970107e-02	7.653524e-01	
292	5.768410e-10	2.763180e-02	7.683429e-01	
293	5.771425e-10	2.573953e-02	7.713596e-01	
294	5.774421e-10	2.403677e-02	7.743561e-01	
295	5.777409e-10	2.249844e-02	7.773449e-01	
296	5.780414e-10	2.109813e-02	7.803506e-01	
297	5.783459e-10	1.981538e-02	7.833967e-01	
298	5.786566e-10	1.863532e-02	7.865035e-01	
299	5.789747e-10	1.754834e-02	7.896850e-01	
300	5.793019e-10	1.654553e-02	7.929583e-01	
301	5.796396e-10	1.562103e-02	7.963360e-01	
302	5.799897e-10	1.476830e-02	7.998374e-01	
303	5.803537e-10	1.398318e-02	8.034774e-01	
304	5.807339e-10	1.326058e-02	8.072795e-01	
305	5.811322e-10	1.259730e-02	8.112630e-01	
306	5.815516e-10	1.198923e-02	8.154580e-01	
307	5.819950e-10	1.143364e-02	8.198915e-01	
308	5.824662e-10	1.092700e-02	8.246040e-01	
309	5.829694e-10	1.046679e-02	8.296359e-01	
310	5.835103e-10	1.004977e-02	8.350452e-01	
311	5.840952e-10	9.673329e-03	8.408947e-01	
312	5.847331e-10	9.334202e-03	8.472739e-01	
313	5.854345e-10	9.029430e-03	8.542875e-01	
314	5.862142e-10	8.755308e-03	8.620847e-01	
315	5.870912e-10	8.508046e-03	8.708555e-01	
316	5.880934e-10	8.282850e-03	8.808777e-01	
317	5.892596e-10	8.074200e-03	8.925391e-01	
318	5.906499e-10	7.874828e-03	9.064426e-01	
319	5.923591e-10	7.675347e-03	9.235337e-01	
320	5.945517e-10	7.462363e-03	9.454604e-01	
321	5.975368e-10	7.216017e-03	9.753109e-01	
322	6.000000e-10	7.036794e-03	9.999429e-01	
323	6.000003e-10	7.036691e-03	9.999461e-01	
324	6.000010e-10	7.036335e-03	9.999521e-01	
325	6.000013e-10	7.036159e-03	9.999539e-01	
326	6.000015e-10	7.035965e-03	9.999555e-01	
327	6.000019e-10	7.035508e-03	9.999585e-01	
328	6.000025e-10	7.034745e-03	9.999622e-01	
329	6.000031e-10	7.033825e-03	9.999656e-01	
330	6.000037e-10	7.032782e-03	9.999686e-01	
331	6.000043e-10	7.031671e-03	9.999712e-01	
332	6.000048e-10	7.030467e-03	9.999735e-01	
333	6.000054e-10	7.029168e-03	9.999756e-01	
334	6.000060e-10	7.027756e-03	9.999775e-01	
335	6.000066e-10	7.026224e-03	9.999793e-01	
336	6.000073e-10	7.024563e-03	9.999810e-01	
337	6.000079e-10	7.022762e-03	9.999825e-01	
338	6.000087e-10	7.020809e-03	9.999839e-01	
339	6.000094e-10	7.018688e-03	9.999852e-01	
340	6.000102e-10	7.016384e-03	9.999864e-01	
341	6.000110e-10	7.013875e-03	9.999876e-01	
342	6.000119e-10	7.011140e-03	9.999886e-01	
343	6.000128e-10	7.008147e-03	9.999895e-01	
344	6.000139e-10	7.004864e-03	9.999903e-01	

Index   time            v(4)            v(5)            
--------------------------------------------------------------------------------
345	6.000150e-10	7.001246e-03	9.999910e-01	
346	6.000162e-10	6.997242e-03	9.999917e-01	
347	6.000175e-10	6.992780e-03	9.999923e-01	
348	6.000190e-10	6.987776e-03	9.999928e-01	
349	6.000207e-10	6.982109e-03	9.999932e-01	
350	6.000226e-10	6.975623e-03	9.999935e-01	
351	6.000248e-10	6.968090e-03	9.999938e-01	
352	6.000274e-10	6.959192e-03	9.999940e-01	
353	6.000306e-10	6.948429e-03	9.999942e-01	
354	6.000345e-10	6.935018e-03	9.999943e-01	
355	6.000396e-10	6.917591e-03	9.999943e-01	
356	6.000466e-10	6.893591e-03	9.999944e-01	
357	6.000572e-10	6.857532e-03	9.999944e-01	
358	6.000755e-10	6.795499e-03	9.999945e-01	
359	6.001122e-10	6.673092e-03	9.999946e-01	
360	6.001855e-10	6.434774e-03	9.999948e-01	
361	6.003322e-10	5.983014e-03	9.999951e-01	
362	6.005383e-10	5.400622e-03	9.999956e-01	
363	6.007593e-10	4.838379e-03	9.999960e-01	
364	6.009903e-10	4.312827e-03	9.999965e-01	
365	6.012269e-10	3.833261e-03	9.999969e-01	
366	6.014757e-10	3.386146e-03	9.999972e-01	
367	6.017372e-10	2.971867e-03	9.999976e-01	
368	6.020147e-10	2.587285e-03	9.999979e-01	
369	6.023093e-10	2.233196e-03	9.999982e-01	
370	6.026235e-10	1.908439e-03	9.999984e-01	
371	6.029598e-10	1.612789e-03	9.999987e-01	
372	6.033218e-10	1.345362e-03	9.999989e-01	
373	6.037134e-10	1.105577e-03	9.999991e-01	
374	6.041399e-10	8.926369e-04	9.999993e-01	
375	6.046075e-10	7.057940e-04	9.999994e-01	
376	6.051246e-10	5.441723e-04	9.999996e-01	
377	6.057022e-10	4.068275e-04	9.999997e-01	
378	6.063547e-10	2.926702e-04	9.999998e-01	
379	6.071025e-10	2.004495e-04	9.999998e-01	
380	6.079744e-10	1.286897e-04	9.999999e-01	
381	6.090132e-10	7.562982e-05	9.999999e-01	
382	6.102860e-10	3.914116e-05	1.000000e+00	
383	6.119043e-10	1.664132e-05	1.000000e+00	
384	6.140690e-10	5.425550e-06	1.000000e+00	
385	6.172109e-10	1.334079e-06	1.000000e+00	
386	6.221149e-10	1.040205e-07	1.000000e+00	
387	6.317580e-10	1.341567e-07	1.000000e+00	
388	6.417580e-10	1.146710e-07	1.000000e+00	
389	6.517580e-10	1.185567e-07	1.000000e+00	
390	6.617580e-10	1.168765e-07	1.000000e+00	
391	6.717580e-10	1.176104e-07	1.000000e+00	
392	6.817580e-10	1.172825e-07	1.000000e+00	
393	6.917580e-10	1.174362e-07	1.000000e+00	
394	7.017580e-10	1.173573e-07	1.000000e+00	
395	7.117580e-10	1.174041e-07	1.000000e+00	
396	7.217580e-10	1.173711e-07	1.000000e+00	
397	7.317580e-10	1.173982e-07	1.000000e+00	
398	7.417580e-10	1.173736e-07	1.000000e+00	
399	7.517580e-10	1.173971e-07	1.000000e+00	
400	7.617580e-10	1.173741e-07	1.000000e+00	
401	7.717580e-10	1.173969e-07	1.000000e+00	
402	7.817580e-10	1.173742e-07	1.000000e+00	

Index   time            v(4)            v(5)            
--------------------------------------------------------------------------------
403	7.917580e-10	1.173968e-07	1.000000e+00	
404	8.017580e-10	1.173742e-07	1.000000e+00	
405	8.117580e-10	1.173968e-07	1.000000e+00	
406	8.217580e-10	1.173742e-07	1.000000e+00	
407	8.317580e-10	1.173968e-07	1.000000e+00	
408	8.417580e-10	1.173742e-07	1.000000e+00	
409	8.517580e-10	1.173968e-07	1.000000e+00	
410	8.617580e-10	1.173742e-07	1.000000e+00	
411	8.717580e-10	1.173968e-07	1.000000e+00	
412	8.817580e-10	1.173742e-07	1.000000e+00	
413	8.917580e-10	1.173968e-07	1.000000e+00	
414	9.017580e-10	1.173743e-07	1.000000e+00	
415	9.117580e-10	1.173968e-07	1.000000e+00	
416	9.217580e-10	1.173743e-07	1.000000e+00	
417	9.317580e-10	1.173967e-07	1.000000e+00	
418	9.417580e-10	1.173743e-07	1.000000e+00	
419	9.517580e-10	1.173967e-07	1.000000e+00	
420	9.617580e-10	1.173743e-07	1.000000e+00	
421	9.717580e-10	1.173967e-07	1.000000e+00	
422	9.817580e-10	1.173743e-07	1.000000e+00	
423	9.917580e-10	1.173967e-07	1.000000e+00	
424	1.000000e-09	1.173743e-07	1.000000e+00	

elapsed time since last call: 0.158 seconds.

Total elapsed time: 0.158 seconds.

Total DRAM available = 5941.148438 MB.
DRAM currently available = 48.023438 MB.
Total ngspice program size = 15.716797 MB.
Resident set size = 970.000 kB.
Shared ngspice pages = 605.000 kB.
Text (code) pages = 1.953125 MB.
Stack = 0 bytes.
Library pages = 6.135742 MB.

